%%%%%%%%%%%%%%%%%%%%%%%%%%%%%%%%%%%%%%%%%%%%%%%%%%%%%%%%%%%%%%%%%%%%%%%%%%%%%%%%
% SU2 configuration file                                                       %
% Case description: FSI: Vertical Cantilever in Channel - Structure            %
% Author: Ruben Sanchez Fernandez                                              %
% Institution: TU Kaiserslautern                                               %
% Date: 2020-02-05                                                             %
% File Version 7.0.2 "Blackbird"                                               %
%%%%%%%%%%%%%%%%%%%%%%%%%%%%%%%%%%%%%%%%%%%%%%%%%%%%%%%%%%%%%%%%%%%%%%%%%%%%%%%%

%%%%%%%%%%%%%%%%%%%%%%%
% SOLVER TYPE
%%%%%%%%%%%%%%%%%%%%%%%   
          
SOLVER = ELASTICITY

MATH_PROBLEM = DISCRETE_ADJOINT

%%%%%%%%%%%%%%%%%%%%%%%
% STRUCTURAL PROPERTIES
%%%%%%%%%%%%%%%%%%%%%%%

GEOMETRIC_CONDITIONS = LARGE_DEFORMATIONS
MATERIAL_MODEL = NEO_HOOKEAN

ELASTICITY_MODULUS = 5.0E4
POISSON_RATIO = 0.35
FORMULATION_ELASTICITY_2D = PLANE_STRAIN

%%%%%%%%%%%%%%%%%%%%%%%
% INPUT
%%%%%%%%%%%%%%%%%%%%%%%

MESH_FORMAT = SU2
MESH_FILENAME = mesh_cantilever.su2

%%%%%%%%%%%%%%%%%%%%%%%
% BOUNDARY CONDITIONS
%%%%%%%%%%%%%%%%%%%%%%%

MARKER_CLAMPED = ( clamped )
MARKER_PRESSURE = ( feabound, 0)

%%%%%%%%%%%%%%%%%%%%%%%
% COUPLING CONDITIONS
%%%%%%%%%%%%%%%%%%%%%%%

MARKER_FLUID_LOAD = ( feabound )
MARKER_DEFORM_MESH = ( feabound )

%%%%%%%%%%%%%%%%%%%%%%%
% SOLUTION METHOD
%%%%%%%%%%%%%%%%%%%%%%%

NONLINEAR_FEM_SOLUTION_METHOD = NEWTON_RAPHSON
INNER_ITER = 5

%%%%%%%%%%%%%%%%%%%%%%%
% CONVERGENCE CRITERIA
%%%%%%%%%%%%%%%%%%%%%%%

CONV_FIELD = ADJOINT_DISP_X, ADJOINT_DISP_Y
CONV_STARTITER = 2
CONV_RESIDUAL_MINVAL = -7

%%%%%%%%%%%%%%%%%%%%%%%
% LINEAR SOLVER
%%%%%%%%%%%%%%%%%%%%%%%

LINEAR_SOLVER = CONJUGATE_GRADIENT
LINEAR_SOLVER_PREC = ILU
LINEAR_SOLVER_ERROR = 1E-8
LINEAR_SOLVER_ITER = 1000

SCREEN_WRT_FREQ_INNER = 1

%%%%%%%%%%%%%%%%%%%%%%%
% OUTPUT
%%%%%%%%%%%%%%%%%%%%%%%

OUTPUT_FILES = (RESTART, PARAVIEW)
SOLUTION_FILENAME = solution_fsi_steady_1
RESTART_FILENAME = restart_fsi_steady_1

SOLUTION_ADJ_FILENAME = solution_ad_fsi_steady_1
RESTART_ADJ_FILENAME = restart_ad_fsi_steady_1
VOLUME_ADJ_FILENAME = fsi_ad_steady_1

HISTORY_OUTPUT = ITER, RMS_RES, SENSITIVITY
CONV_FILENAME= history_ad_1
