%%%%%%%%%%%%%%%%%%%%%%%%%%%%%%%%%%%%%%%%%%%%%%%%%%%%%%%%%%%%%%%%%%%%%%%%%%%%%%%%
% SU2 configuration file                                                       %
% Case description: FSI: Vertical Cantilever in Channel - Structure            %
% Author: Ruben Sanchez Fernandez                                              %
% Institution: TU Kaiserslautern                                               %
% Date: 2020-02-05                                                             %
% File Version 7.0.2 "Blackbird"                                               %
%%%%%%%%%%%%%%%%%%%%%%%%%%%%%%%%%%%%%%%%%%%%%%%%%%%%%%%%%%%%%%%%%%%%%%%%%%%%%%%%

%%%%%%%%%%%%%%%%%%%%%%%
% SOLVER TYPE
%%%%%%%%%%%%%%%%%%%%%%%   
          
SOLVER = ELASTICITY

%%%%%%%%%%%%%%%%%%%%%%%
% STRUCTURAL PROPERTIES
%%%%%%%%%%%%%%%%%%%%%%%

GEOMETRIC_CONDITIONS = LARGE_DEFORMATIONS
MATERIAL_MODEL = NEO_HOOKEAN

ELASTICITY_MODULUS = 5.0E4
POISSON_RATIO = 0.35
FORMULATION_ELASTICITY_2D = PLANE_STRAIN

%%%%%%%%%%%%%%%%%%%%%%%
% INPUT
%%%%%%%%%%%%%%%%%%%%%%%

MESH_FORMAT = SU2
MESH_FILENAME = mesh_cantilever.su2

%%%%%%%%%%%%%%%%%%%%%%%
% BOUNDARY CONDITIONS
%%%%%%%%%%%%%%%%%%%%%%%

MARKER_CLAMPED = ( clamped )
MARKER_PRESSURE = ( feabound, 0)

%%%%%%%%%%%%%%%%%%%%%%%
% COUPLING CONDITIONS
%%%%%%%%%%%%%%%%%%%%%%%

MARKER_FLUID_LOAD = ( feabound )

%%%%%%%%%%%%%%%%%%%%%%%
% SOLUTION METHOD
%%%%%%%%%%%%%%%%%%%%%%%

NONLINEAR_FEM_SOLUTION_METHOD = NEWTON_RAPHSON
INNER_ITER = 20

%%%%%%%%%%%%%%%%%%%%%%%
% CONVERGENCE CRITERIA
%%%%%%%%%%%%%%%%%%%%%%%

CONV_FIELD = RMS_UTOL, RMS_RTOL, RMS_ETOL
CONV_RESIDUAL_MINVAL = -10

%%%%%%%%%%%%%%%%%%%%%%%
% LINEAR SOLVER
%%%%%%%%%%%%%%%%%%%%%%%

LINEAR_SOLVER = CONJUGATE_GRADIENT
LINEAR_SOLVER_PREC = ILU
LINEAR_SOLVER_ERROR = 1E-8
LINEAR_SOLVER_ITER = 1000


SCREEN_WRT_FREQ_INNER = 1
