%%%%%%%%%%%%%%%%%%%%%%%%%%%%%%%%%%%%%%%%%%%%%%%%%%%%%%%%%%%%%%%%%%%%%%%%%%%%%%%%
%                                                                              %
% SU2 configuration file                                                       %
% Case description: turbulent 90 degree bend flow of Sudo (2001)               %
% Reynolds = 1.185*8.7*0.104/1.785e-5 ~ 60,000
% Author: Nijso Beishuizen                                                     %
% Date: 2025.01.01                                                             %
% File Version 7.2.1 "Blackbird"                                               %
%                                                                              %
%%%%%%%%%%%%%%%%%%%%%%%%%%%%%%%%%%%%%%%%%%%%%%%%%%%%%%%%%%%%%%%%%%%%%%%%%%%%%%%%

% ------------- DIRECT, ADJOINT, AND LINEARIZED PROBLEM DEFINITION ------------%
%
SOLVER= INC_RANS
INC_NONDIM= DIMENSIONAL
KIND_TURB_MODEL= SST
SST_OPTIONS= V2003m
MATH_PROBLEM= DIRECT
RESTART_SOL= YES
%
% ---------------- INCOMPRESSIBLE FLOW CONDITION DEFINITION -------------------%
%
INC_DENSITY_INIT= 1.185
INC_DENSITY_REF = 1.185
INC_VELOCITY_INIT= ( 0.0, 0.0, 1.0 )
INC_VELOCITY_REF = 8.0
INC_INLET_TYPE= VELOCITY_INLET
INC_OUTLET_TYPE= PRESSURE_OUTLET
%
% --------------------------- VISCOSITY MODEL ---------------------------------%
%
VISCOSITY_MODEL= CONSTANT_VISCOSITY
MU_CONSTANT= 1.785e-5
%
% -------------------- BOUNDARY CONDITION DEFINITION --------------------------%
%
SPECIFIED_INLET_PROFILE= YES
INLET_FILENAME= inlet.dat
MARKER_HEATFLUX= ( wall,0.0)
MARKER_INLET= ( inlet, 300.0, 8.7, 0.0, 0.0, 1.0 )
MARKER_OUTLET= ( outlet, 0.0)
MARKER_SYM= ( symmetry )
%
MARKER_MONITORING= ( inlet,outlet)
% Marker(s) of the surface to be plotted or designed
MARKER_PLOTTING= ( wall, symmetry  )
MARKER_ANALYZE= ( inlet,outlet )
MARKER_ANALYZE_AVERAGE= MASSFLUX
MARKER_INTERNAL= (internal)
%
% ------------- COMMON PARAMETERS DEFINING THE NUMERICAL METHOD ---------------%
%
NUM_METHOD_GRAD= WEIGHTED_LEAST_SQUARES
CFL_NUMBER=250.0
CFL_ADAPT= NO 
ITER= 5000
%
% ------------------------ LINEAR SOLVER DEFINITION ---------------------------%
%
LINEAR_SOLVER= FGMRES
%LINEAR_SOLVER_PREC= ILU
LINEAR_SOLVER_PREC= LU_SGS
LINEAR_SOLVER_ERROR= 1E-10
LINEAR_SOLVER_ITER= 5
%
% -------------------------- MULTIGRID PARAMETERS -----------------------------%
%
MGLEVEL= 0
%
% -------------------- FLOW NUMERICAL METHOD DEFINITION -----------------------%
%
CONV_NUM_METHOD_FLOW= FDS
MUSCL_FLOW= YES
SLOPE_LIMITER_FLOW= NONE
TIME_DISCRE_FLOW= EULER_IMPLICIT
%
% -------------------- TURBULENT NUMERICAL METHOD DEFINITION ------------------%
%
% Convective numerical method (SCALAR_UPWIND)
CONV_NUM_METHOD_TURB= SCALAR_UPWIND
MUSCL_TURB= NO 
SLOPE_LIMITER_TURB= VENKATAKRISHNAN
TIME_DISCRE_TURB= EULER_IMPLICIT
FREESTREAM_TURBULENCEINTENSITY= 0.10
FREESTREAM_TURB2LAMVISCRATIO= 100.0
%
% --------------------------- CONVERGENCE PARAMETERS --------------------------%
%
CONV_FIELD= RMS_PRESSURE
CONV_RESIDUAL_MINVAL= -14
CONV_STARTITER= 10
CONV_CAUCHY_ELEMS= 100
CONV_CAUCHY_EPS= 1E-6
%
% ------------------------- INPUT/OUTPUT INFORMATION --------------------------%
%
MESH_FILENAME= sudo_coarse_mergedmarkers.su2
SOLUTION_FILENAME= solution
CONV_FILENAME= history
RESTART_FILENAME= restart
WRT_RESTART_OVERWRITE= YES
WRT_VOLUME_OVERWRITE= YES
WRT_SURFACE_OVERWRITE= YES
WRT_PERFORMANCE= YES
VOLUME_FILENAME= flow
OUTPUT_WRT_FREQ= 50
SCREEN_WRT_FREQ_INNER= 1
SCREEN_WRT_FREQ_OUTER= 1
OUTPUT_FILES= PARAVIEW_MULTIBLOCK RESTART SURFACE_CSV
SCREEN_OUTPUT= INNER_ITER RMS_PRESSURE RMS_VELOCITY-X RMS_VELOCITY-Y RMS_VELOCITY-Z RMS_TKE RMS_DISSIPATION LINSOL_ITER LINSOL_RESIDUAL
VOLUME_OUTPUT= SOLUTION PRIMITIVE RESIDUAL
HISTORY_OUTPUT= INNER_ITER SURFACE_MASSFLOW RMS_VELOCITY-X RMS_VELOCITY-Y RMS_VELOCITY-Z RMS_TKE RMS_DISSIPATION RMS_PRESSURE


MESH_OUT_FILENAME= sudo_coarse_FFD
% -------------------- FREE-FORM DEFORMATION PARAMETERS -----------------------%
%
% FFD box definition: 3D case (FFD_BoxTag, X1, Y1, Z1, X2, Y2, Z2, X3, Y3, Z3, X4, Y4, Z4,
%                              X5, Y5, Z5, X6, Y6, Z6, X7, Y7, Z7, X8, Y8, Z8)
%                     2D case (FFD_BoxTag, X1, Y1, 0.0, X2, Y2, 0.0, X3, Y3, 0.0, X4, Y4, 0.0,
%                              0.0, 0.0, 0.0, 0.0, 0.0, 0.0, 0.0, 0.0, 0.0, 0.0, 0.0, 0.0)
% Start at the lowest leftest corner and turn counter-clockwise
% Bottom of FFD is lower than sym plane,
% top is higher than pipe radius.
FFD_DEFINITION= (BOX, \
-0.06, -0.009, -0.001, \
 0.209, -0.009, -0.001, \
 0.209, 0.060, -0.001, \
-0.06, 0.060, -0.001, \
-0.06, -0.009 ,0.27, \
 0.209 ,-0.009, 0.27, \
 0.209, 0.060, 0.27, \
-0.06, 0.060, 0.27 )

%
% FFD box degree: 3D case (i_degree, j_degree, k_degree)
%                 2D case (i_degree, j_degree, 0)
FFD_DEGREE= (5,5,5)
%
DV_KIND= FFD_SETTING

%
% Marker of the surface in which we are going apply the shape deformation
% NOTE: for deformation the outlet should be a MARKER_SYM to hinder the mesh being ripped apart.
DV_MARKER= ( wall, symmetry)
%
% Parameters of the shape deformation
% - FFD_SETTING ( 1.0 )
% - FFD_CONTROL_POINT ( FFD_BoxTag, i_Ind, j_Ind, k_Ind, x_Disp, y_Disp, z_Disp )
DV_PARAM= (1.0)
