%%%%%%%%%%%%%%%%%%%%%%%%%%%%%%%%%%%%%%%%%%%%%%%%%%%%%%%%%%%%%%%%%%%%%%%%%%%%%%%%
%                                                                              %
% SU2 configuration file                                                       %
% Case description: Generation of FFD box for coupled CFD-RHT adjoint problem  %
% Author: Ruben Sanchez (TU Kaiserslautern)                                    %
% Date: 2020-02-07                                                             %
% File Version 7.0.2 "Blackbird"                                               %
%                                                                              %
%%%%%%%%%%%%%%%%%%%%%%%%%%%%%%%%%%%%%%%%%%%%%%%%%%%%%%%%%%%%%%%%%%%%%%%%%%%%%%%%

%%%%%%%%%%%%%%%%%%%%%%%
% INPUT-OUTPUT
%%%%%%%%%%%%%%%%%%%%%%%

MESH_FORMAT = SU2
MESH_FILENAME = mesh_adjoint_rht.su2
MESH_OUT_FILENAME = mesh_adjoint_rht_ffd.su2

%%%%%%%%%%%%%%%%%%%%%%%
% BOUNDARY DEFINITION
%%%%%%%%%%%%%%%%%%%%%%%

MARKER_CUSTOM = ( body, farfield )

%%%%%%%%%%%%%%%%%%%%%%%
% FFD SETUP DEFINITION
%%%%%%%%%%%%%%%%%%%%%%%

DV_KIND = FFD_SETTING
DV_MARKER = ( body )
DV_PARAM = ( MAIN_BOX, 12, 1, 0.0, 1.0 )

%%%%%%%%%%%%%%%%%%%%%%%
% FFD PARAMETERS
%%%%%%%%%%%%%%%%%%%%%%%

FFD_TOLERANCE = 1E-8
FFD_ITERATIONS = 500
FFD_DEFINITION = (MAIN_BOX, -0.55, -0.55, 0.0, 0.55, -0.55, 0.0, 0.55, 0.55, 0.0, -0.55, 0.55, 0.0, 0.0, 0.0, 0.0, 0.0, 0.0, 0.0, 0.0, 0.0, 0.0, 0.0, 0.0, 0.0)
FFD_DEGREE = ( 24, 1, 0)
FFD_CONTINUITY = 2ND_DERIVATIVE

