%%%%%%%%%%%%%%%%%%%%%%%%%%%%%%%%%%%%%%%%%%%%%%%%%%%%%%%%%%%%%%%%%%%%%%%%%%%%%%%%
%                                                                              %
% SU2 configuration file                                                       %
% Case description: Turbulent multiphysics with RHT and CHT - FFD setup        %
% Author: Ruben Sanchez (TU Kaiserslautern)                                    %
% Institution: Chair for Scientific Computing, TU Kaiserslautern               %
% Date: 2020-02-17                                                             %
% File Version 7.0.2 "Blackbird"                                               %
%                                                                              %
%%%%%%%%%%%%%%%%%%%%%%%%%%%%%%%%%%%%%%%%%%%%%%%%%%%%%%%%%%%%%%%%%%%%%%%%%%%%%%%%

%%%%%%%%%%%%%%%%%%%%%%%
% INPUT-OUTPUT
%%%%%%%%%%%%%%%%%%%%%%%

MESH_FORMAT = SU2
MESH_FILENAME = mesh_flow.su2
MESH_OUT_FILENAME = mesh_flow_ffd.su2

%%%%%%%%%%%%%%%%%%%%%%%
% BOUNDARY DEFINITION
%%%%%%%%%%%%%%%%%%%%%%%

MARKER_CUSTOM = ( upper, lower, left, right, inlet, outlet )

%%%%%%%%%%%%%%%%%%%%%%%
% FFD SETUP DEFINITION
%%%%%%%%%%%%%%%%%%%%%%%

DV_KIND = FFD_SETTING
DV_MARKER = (( upper ), (lower))
DV_PARAM = (( UPPER_BOX, 14, 1, 0.0, 1.0 ), ( LOWER_BOX, 14, 1, 0.0, 1.0 ))

%%%%%%%%%%%%%%%%%%%%%%%
% FFD PARAMETERS
%%%%%%%%%%%%%%%%%%%%%%%

FFD_TOLERANCE = 1E-8
FFD_ITERATIONS = 500
FFD_DEFINITION = (UPPER_BOX, -0.02, 0.975, 0.0, 0.998, 0.975, 0.0, 0.998, 1.025, 0.0, -0.02, 1.025, 0.0, 0.0, 0.0, 0.0, 0.0, 0.0, 0.0, 0.0, 0.0, 0.0, 0.0, 0.0, 0.0); (LOWER_BOX, -0.02, -0.025, 0.0, 0.998, -0.025, 0.0, 0.998, 0.025, 0.0, -0.02, 0.025, 0.0, 0.0, 0.0, 0.0, 0.0, 0.0, 0.0, 0.0, 0.0, 0.0, 0.0, 0.0, 0.0)
FFD_DEGREE = ( 14, 1, 0); ( 14, 1, 0)
FFD_CONTINUITY = 2ND_DERIVATIVE

