%%%%%%%%%%%%%%%%%%%%%%%%%%%%%%%%%%%%%%%%%%%%%%%%%%%%%%%%%%%%%%%%%%%%%%%%%%%%%%%%
%                                                                              %
% SU2 configuration file                                                       %
% Case description: Turbulent multiphysics with RHT and CHT - FFD deformation  %
% Author: Ruben Sanchez (TU Kaiserslautern)                                    %
% Institution: Chair for Scientific Computing, TU Kaiserslautern               %
% Date: 2020-02-17                                                             %
% File Version 7.0.2 "Blackbird"                                               %
%                                                                              %
%%%%%%%%%%%%%%%%%%%%%%%%%%%%%%%%%%%%%%%%%%%%%%%%%%%%%%%%%%%%%%%%%%%%%%%%%%%%%%%%

%%%%%%%%%%%%%%%%%%%%%%%
% INPUT-OUTPUT
%%%%%%%%%%%%%%%%%%%%%%%

MESH_FORMAT = SU2
MESH_FILENAME = mesh_flow_ffd.su2
MESH_OUT_FILENAME = mesh_flow_ffd_deform.su2

%%%%%%%%%%%%%%%%%%%%%%%
% BOUNDARY CONDITIONS
%%%%%%%%%%%%%%%%%%%%%%%

%MARKER_CUSTOM = ( upper, lower, left, right, inlet, outlet )

MARKER_HEATFLUX = ( upper, 0.0, lower, 0.0, left, 0.0, right, 0.0, inlet, 0, outlet, 0)

%%%%%%%%%%%%%%%%%%%%%%%
% FFD SETUP DEFINITION
%%%%%%%%%%%%%%%%%%%%%%%

DV_KIND= FFD_CONTROL_POINT_2D, FFD_CONTROL_POINT_2D, FFD_CONTROL_POINT_2D, FFD_CONTROL_POINT_2D, FFD_CONTROL_POINT_2D, FFD_CONTROL_POINT_2D, FFD_CONTROL_POINT_2D, FFD_CONTROL_POINT_2D, FFD_CONTROL_POINT_2D, FFD_CONTROL_POINT_2D, FFD_CONTROL_POINT_2D, FFD_CONTROL_POINT_2D, FFD_CONTROL_POINT_2D, FFD_CONTROL_POINT_2D, FFD_CONTROL_POINT_2D, FFD_CONTROL_POINT_2D, FFD_CONTROL_POINT_2D, FFD_CONTROL_POINT_2D, FFD_CONTROL_POINT_2D, FFD_CONTROL_POINT_2D, FFD_CONTROL_POINT_2D, FFD_CONTROL_POINT_2D, FFD_CONTROL_POINT_2D, FFD_CONTROL_POINT_2D
DV_MARKER = (( upper ), (lower))
DV_PARAM = ( UPPER_BOX, 0, 1, 0.0, 1.0 ); ( UPPER_BOX, 1, 1, 0.0, 1.0 ); ( UPPER_BOX, 2, 1, 0.0, 1.0 ); ( UPPER_BOX, 3, 1, 0.0, 1.0 ); ( UPPER_BOX, 4, 1, 0.0, 1.0 ); ( UPPER_BOX, 5, 1, 0.0, 1.0 ); ( UPPER_BOX, 6, 1, 0.0, 1.0 ); ( UPPER_BOX, 7, 1, 0.0, 1.0 ); ( UPPER_BOX, 8, 1, 0.0, 1.0 ); ( UPPER_BOX, 9, 1, 0.0, 1.0 ); ( UPPER_BOX, 10, 1, 0.0, 1.0 ); ( UPPER_BOX, 11, 1, 0.0, 1.0 ); ( LOWER_BOX, 0, 0, 0.0, 1.0 ); ( LOWER_BOX, 1, 0, 0.0, 1.0 ); ( LOWER_BOX, 2, 0, 0.0, 1.0 ); ( LOWER_BOX, 3, 0, 0.0, 1.0 ); ( LOWER_BOX, 4, 0, 0.0, 1.0 ); ( LOWER_BOX, 5, 0, 0.0, 1.0 ); ( LOWER_BOX, 6, 0, 0.0, 1.0 ); ( LOWER_BOX, 7, 0, 0.0, 1.0 ); ( LOWER_BOX, 8, 0, 0.0, 1.0 ); ( LOWER_BOX, 9, 0, 0.0, 1.0 ); ( LOWER_BOX, 10, 0, 0.0, 1.0 ); ( LOWER_BOX, 11, 0, 0.0, 1.0 )
DV_VALUE = 0.0, 0.05, 0.1, 0.14, 0.16, 0.17, 0.175, 0.17, 0.16, 0.14, 0.1, 0.05, 0.0, -0.05, -0.1, -0.14, -0.16, -0.17, -0.175, -0.17, -0.16, -0.14, -0.1, -0.05
