%%%%%%%%%%%%%%%%%%%%%%%%%%%%%%%%%%%%%%%%%%%%%%%%%%%%%%%%%%%%%%%%%%%%%%%%%%%%%%%%
% SU2 configuration file                                                       %
% Case description: Linear Elasticity in Vertical Cantilever                   %
% Author: Ruben Sanchez Fernandez                                              %
% Institution: TU Kaiserslautern                                               %
% Date: 27/01/2020                                                             %
% File Version 7.0.1 "Blackbird"                                               %
%%%%%%%%%%%%%%%%%%%%%%%%%%%%%%%%%%%%%%%%%%%%%%%%%%%%%%%%%%%%%%%%%%%%%%%%%%%%%%%%

%%%%%%%%%%%%%%%%%%%%%%%
% SOLVER TYPE
%%%%%%%%%%%%%%%%%%%%%%%   
          
SOLVER = ELASTICITY

%%%%%%%%%%%%%%%%%%%%%%%
% STRUCTURAL PROPERTIES
%%%%%%%%%%%%%%%%%%%%%%%

GEOMETRIC_CONDITIONS = SMALL_DEFORMATIONS
MATERIAL_MODEL = LINEAR_ELASTIC

ELASTICITY_MODULUS = 5.0E9
POISSON_RATIO = 0.35
FORMULATION_ELASTICITY_2D = PLANE_STRESS

%%%%%%%%%%%%%%%%%%%%%%%
% INPUT
%%%%%%%%%%%%%%%%%%%%%%%

MESH_FORMAT = SU2
MESH_FILENAME = mesh_cantilever.su2

%%%%%%%%%%%%%%%%%%%%%%%
% BOUNDARY CONDITIONS
%%%%%%%%%%%%%%%%%%%%%%%

MARKER_CLAMPED = ( clamped )
MARKER_LOAD = ( left, 1.0, 1000, 1, 0, 0)
MARKER_PRESSURE = ( upper, 0, right, 0) 

%%%%%%%%%%%%%%%%%%%%%%%
% LINEAR SOLVER
%%%%%%%%%%%%%%%%%%%%%%%

LINEAR_SOLVER = CONJUGATE_GRADIENT
LINEAR_SOLVER_PREC = ILU
LINEAR_SOLVER_ERROR = 1E-8
LINEAR_SOLVER_ITER = 1000

%%%%%%%%%%%%%%%%%%%%%%%
% OUTPUT
%%%%%%%%%%%%%%%%%%%%%%%

SCREEN_OUTPUT = (INNER_ITER, RMS_DISP_X, RMS_DISP_Y, VMS)

TABULAR_FORMAT = CSV
OUTPUT_FILES =(RESTART, PARAVIEW)

CONV_FILENAME = history
VOLUME_FILENAME = linear_elastic
RESTART_FILENAME = restart_linear_elastic
