%%%%%%%%%%%%%%%%%%%%%%%%%%%%%%%%%%%%%%%%%%%%%%%%%%%%%%%%%%%%%%%%%%%%%%%%%%%%%%%%
%                                                                              %
% SU2 configuration file                                                       %
% Case description: LM model for T3A flat plate _____________________________  %
% Author: Sunoh. Kang _______________________________________________________  %
% Institution: Pusan National University ____________________________________  %
% Date: 10. 24. 2022                                                           %
% File Version 7.4.0 "Blackbird"                                               %
%                                                                              %
%%%%%%%%%%%%%%%%%%%%%%%%%%%%%%%%%%%%%%%%%%%%%%%%%%%%%%%%%%%%%%%%%%%%%%%%%%%%%%%%
% ------------- DIRECT, ADJOINT, AND LINEARIZED PROBLEM DEFINITION ------------%
SOLVER= RANS
%
KIND_TURB_MODEL= SST
%
SST_OPTIONS= V1994m
KIND_TRANS_MODEL= LM
%
MATH_PROBLEM= DIRECT
%
SYSTEM_MEASUREMENTS= SI
%
% ------------------------------- SOLVER CONTROL ------------------------------%
%
ITER= 10000
%
CONV_RESIDUAL_MINVAL= -11
%
CONV_STARTITER= 10
%
CONV_CAUCHY_ELEMS= 100
%
CONV_CAUCHY_EPS= 1E-10
%
% ------------------------- TIME-DEPENDENT SIMULATION -------------------------------%
%
TIME_DOMAIN= NO
%
TIME_MARCHING= NO
%
% ------------------------ COMPRESSIBLE FREE-STREAM DEFINITION ----------------%
%
MACH_NUMBER= 0.2
%
AOA= 0.000
%
INIT_OPTION= TD_CONDITIONS
%
FREESTREAM_OPTION= TEMPERATURE_FS
%
FREESTREAM_PRESSURE= 4563.975432
%
FREESTREAM_TEMPERATURE= 300.0
%
REYNOLDS_NUMBER= 4000000.0
%
FREESTREAM_TURBULENCEINTENSITY = 0.05855
%
FREESTREAM_TURB2LAMVISCRATIO = 11.9
%
REF_DIMENSIONALIZATION= DIMENSIONAL
%
% ---------------------- REFERENCE VALUE DEFINITION ---------------------------%
%
REF_ORIGIN_MOMENT_X = 0.00
REF_ORIGIN_MOMENT_Y = 0.00
REF_ORIGIN_MOMENT_Z = 0.00
%
REF_LENGTH= 20.0
%
REF_AREA= 20.0
%
% ---- NONEQUILIBRIUM GAS, IDEAL GAS, POLYTROPIC, VAN DER WAALS AND PENG ROBINSON CONSTANTS -------%
%
FLUID_MODEL= IDEAL_GAS
%
GAMMA_VALUE= 1.4
%
GAS_CONSTANT= 287.0425
%
ACENTRIC_FACTOR= 0.035
%
SPECIFIC_HEAT_CP= 1004.649
%
MOLECULAR_WEIGHT= 28.966
%
% --------------------------- VISCOSITY MODEL ---------------------------------%
%
VISCOSITY_MODEL= CONSTANT_VISCOSITY
%
MU_CONSTANT= 1.85E-5
%
% ------------------------ THERMAL CONDUCTIVITY MODEL -------------------------%
%
CONDUCTIVITY_MODEL= CONSTANT_PRANDTL
%
PRANDTL_LAM= 0.72
%
TURBULENT_CONDUCTIVITY_MODEL= CONSTANT_PRANDTL_TURB
%
PRANDTL_TURB= 0.9
%
% -------------------- BOUNDARY CONDITION DEFINITION --------------------------%
%
MARKER_HEATFLUX= ( wall, 0.0 )
%
MARKER_FAR= ( left, top )
%
MARKER_SYM= ( bottom )
%
INLET_TYPE= TOTAL_CONDITIONS
%
MARKER_OUTLET= (right, 4563.975432)
%
% ------------------------ SURFACES IDENTIFICATION ----------------------------%
%
MARKER_PLOTTING = ( wall )
%
% ------------- COMMON PARAMETERS DEFINING THE NUMERICAL METHOD ---------------%
%
NUM_METHOD_GRAD= WEIGHTED_LEAST_SQUARES
%
CFL_NUMBER= 100.0
%
CFL_ADAPT= YES
%
CFL_ADAPT_PARAM= ( 0.1, 2.0, 100.0, 1e3, 0.001 )
%
% ----------- SLOPE LIMITER AND DISSIPATION SENSOR DEFINITION -----------------%
%
MUSCL_FLOW= YES 
%
SLOPE_LIMITER_FLOW= VENKATAKRISHNAN
%
MUSCL_TURB= YES
%
SLOPE_LIMITER_TURB= VENKATAKRISHNAN
%
% ------------------------ LINEAR SOLVER DEFINITION ---------------------------%
%
LINEAR_SOLVER= FGMRES
%
LINEAR_SOLVER_PREC= LU_SGS
%
LINEAR_SOLVER_ERROR= 1E-6
%
LINEAR_SOLVER_ITER= 5
%
% -------------------- FLOW NUMERICAL METHOD DEFINITION -----------------------%
%
CONV_NUM_METHOD_FLOW= L2ROE
%
TIME_DISCRE_FLOW= EULER_IMPLICIT
%
% -------------------- TURBULENT NUMERICAL METHOD DEFINITION ------------------%
%
CONV_NUM_METHOD_TURB= SCALAR_UPWIND
%
TIME_DISCRE_TURB= EULER_IMPLICIT
%
CFL_REDUCTION_TURB= 1.0
%
% ------------------------- SCREEN/HISTORY VOLUME OUTPUT --------------------------%
%
SCREEN_OUTPUT= (INNER_ITER, RMS_DENSITY, RMS_MOMENTUM-X, RMS_MOMENTUM-Y, RMS_ENERGY, RMS_TKE, RMS_DISSIPATION, RMS_INTERMITTENCY, RMS_RE_THETA_T)
%
SCREEN_WRT_FREQ_INNER= 1
%
SCREEN_WRT_FREQ_OUTER= 1
%
SCREEN_WRT_FREQ_TIME= 1
%
HISTORY_WRT_FREQ_INNER= 1
%
HISTORY_WRT_FREQ_OUTER= 1
%
HISTORY_WRT_FREQ_TIME= 1
%
OUTPUT_WRT_FREQ= 500
%
WRT_PERFORMANCE = YES
%
% ------------------------- INPUT/OUTPUT FILE INFORMATION --------------------------%
%
MESH_FILENAME= grid.su2
%
MESH_FORMAT= SU2
%
MESH_OUT_FILENAME= mesh_out.su2
%
SOLUTION_FILENAME= solution_flow.dat
%
OUTPUT_FILES= (RESTART, PARAVIEW, SURFACE_PARAVIEW, CSV, TECPLOT_ASCII, SURFACE_CSV, SURFACE_TECPLOT_ASCII )
%
CONV_FILENAME= history
%
BREAKDOWN_FILENAME= forces_breakdown.dat
%
READ_BINARY_RESTART= NO
